# *******************
# Calendar Parameters
# *******************
 &CAL_NML
 TheCalendar='model',
 startdate_1 = 19920101,
 startDate_2=000000,
 calendarDumps = .FALSE.,
 &
