# KPP parameters
 &KPP_PARM01
 KPPmixingMaps   = .FALSE.,
 KPPwriteState   = .TRUE.,
 Ricr    = 0.3,
 cekman  = 0.7,
 cmonob  = 1.0,
 difm0   = 0.005,
 difs0   = 0.005,
 dift0   = 0.005,
 difmcon = 0.25,
 difscon = 0.25,
 diftcon = 0.25,
 &
